@<TRIPOS>MOLECULE
1ykr
 33 36 0 0 0
SMALL
USER_CHARGES

@<TRIPOS>ATOM
      1 C           2.8120   28.3950    8.1690 C.2     1  UNL11       0.0540
      2 C           2.6170   28.2240    9.5600 C.2     1  UNL11       0.0760
      3 N           1.4290   27.9110   10.0420 N.pl3   1  UNL11      -0.2290
      4 C           0.3290   27.7640    9.2520 C.2     1  UNL11       0.2030
      5 C           0.3880   27.9180    7.8350 C.2     1  UNL11       0.0490
      6 C           1.6730   28.2520    7.2970 C.2     1  UNL11       0.0090
      7 C           1.1500   27.7340   11.3350 C.2     1  UNL11       0.1530
      8 C          -0.2280   27.4250   11.2980 C.1     1  UNL11       0.0750
      9 N          -0.7570   27.4320   10.0310 N.2     1  UNL11      -0.3370
     10 C           4.1740   28.7140    7.6480 C.2     1  UNL11       0.1980
     11 O           4.7910   29.7200    8.0080 O.2     1  UNL11      -0.2870
     12 CL          6.0310   26.5140    8.3210 Cl      1  UNL11      -0.0820
     13 CL          3.6650   28.8880    4.6750 Cl      1  UNL11      -0.0820
     14 C           4.8010   27.7930    6.6050 C.3     1  UNL11       0.0600
     15 C           4.5070   27.9190    5.1540 C.3     1  UNL11       0.0620
     16 C           5.1120   27.0570    4.2190 C.3     1  UNL11       0.0120
     17 C           5.9900   26.0320    4.6400 C.3     1  UNL11       0.0020
     18 C           6.3010   25.8590    6.0190 C.3     1  UNL11       0.0120
     19 C           5.7110   26.7080    7.0020 C.3     1  UNL11       0.0620
     20 N          -0.8360   27.1570   12.6110 N.pl3   1  UNL11      -0.2610
     21 H          -1.0530   27.9360   13.1720 H       1  UNL11       0.1630
     22 C          -1.8800   23.4300   14.3800 C.3     1  UNL11       0.1220
     23 C          -2.4630   24.6600   14.8210 C.3     1  UNL11       0.0210
     24 C          -2.0960   25.8630   14.2080 C.3     1  UNL11       0.0170
     25 C          -1.1420   25.8520   13.1500 C.3     1  UNL11       0.0560
     26 C          -0.5480   24.6030   12.6980 C.3     1  UNL11       0.0170
     27 C          -0.9200   23.3790   13.3190 C.3     1  UNL11       0.0210
     28 N          -1.0770   21.1910   15.8090 N.3     1  UNL11      -0.2040
     29 O          -2.9350   21.0530   14.2060 O.2     1  UNL11      -0.1530
     30 S          -2.3780   21.9550   15.1830 S.O2    1  UNL11       0.0570
     31 O          -3.2070   22.3620   16.2880 O.2     1  UNL11      -0.1530
     32 H          -0.4650   20.8860   15.0520 H       1  UNL11       0.1440
     33 H          -1.3850   20.3790   16.3450 H       1  UNL11       0.1440
@<TRIPOS>BOND
     1     1     2    2
     2     1     6    1
     3     1    10    1
     4    28    30    1
     5    29    30    2
     6    22    30    1
     7    30    31    2
     8     2     3    1
     9     3     4    1
    10     3     7    1
    11     4     5    1
    12     4     9    2
    13     5     6    2
    14     7     8    2
    15     8     9    2
    16     8    20    1
    17    22    23   ar
    18    22    27   ar
    19    23    24   ar
    20    24    25   ar
    21    25    26   ar
    22    20    25    1
    23    26    27   ar
    24    10    14    1
    25    10    11    2
    26    14    15   ar
    27    14    19   ar
    28    13    15    1
    29    15    16   ar
    30    16    17   ar
    31    17    18   ar
    32    18    19   ar
    33    12    19    1
    34    28    32    1
    35    28    33    1
    36    20    21    1
