# created with PyMOL 2.5.0
@<TRIPOS>MOLECULE
4ek3_lig_0001
33 36 1                 
SMALL
USER_CHARGES
@<TRIPOS>ATOM
1	   N	1.429	27.911	10.042	N.2	1	LG11	0.000	
2	   C	2.812	28.395	8.169	C.2	1	LG11	0.000	
3	   O	4.791	29.720	8.008	O.2	1	LG11	0.000	
4	  CL	6.031	26.514	8.321	C.3	1	LG11	0.000	
5	 CL2	3.665	28.888	4.675	C.3	1	LG11	0.000	
6	  C2	2.617	28.224	9.560	C.2	1	LG11	0.000	
7	  N2	-0.757	27.432	10.031	N.2	1	LG11	0.000	
8	  O2	-2.935	21.053	14.206	O.2	1	LG11	0.000	
9	  C3	0.329	27.764	9.252	C.2	1	LG11	0.000	
10	  N3	-0.836	27.157	12.611	N.pl3	1	LG11	0.000	
11	  O3	-3.207	22.362	16.288	O.2	1	LG11	0.000	
12	  C4	0.388	27.918	7.835	C.2	1	LG11	0.000	
13	  N4	-1.077	21.191	15.809	N.3	1	LG11	0.000	
14	  C5	1.673	28.252	7.297	C.2	1	LG11	0.000	
15	  C6	1.150	27.734	11.335	C.2	1	LG11	0.000	
16	  C7	-0.228	27.425	11.298	C.2	1	LG11	0.000	
17	  C8	4.174	28.714	7.648	C.2	1	LG11	0.000	
18	  C9	4.801	27.793	6.605	C.2	1	LG11	0.000	
19	 C10	4.507	27.919	5.154	C.2	1	LG11	0.000	
20	 C11	5.112	27.057	4.219	C.2	1	LG11	0.000	
21	 C12	5.990	26.032	4.640	C.2	1	LG11	0.000	
22	 C13	6.301	25.859	6.019	C.2	1	LG11	0.000	
23	 C14	5.711	26.708	7.002	C.2	1	LG11	0.000	
24	 C15	-1.880	23.430	14.380	C.2	1	LG11	0.000	
25	 C16	-2.463	24.660	14.821	C.2	1	LG11	0.000	
26	 C17	-2.096	25.863	14.208	C.2	1	LG11	0.000	
27	 C18	-1.142	25.852	13.150	C.2	1	LG11	0.000	
28	 C19	-0.548	24.603	12.698	C.2	1	LG11	0.000	
29	 C20	-0.920	23.379	13.319	C.2	1	LG11	0.000	
30	   S	-2.378	21.955	15.183	S.o2	1	LG11	0.000	
31	   H	-1.053	27.936	13.172	 H	1	LG11	0.000	
32	  H2	-0.465	20.886	15.052	 H	1	LG11	0.000	
33	  H3	-1.385	20.379	16.345	 H	1	LG11	0.000	
@<TRIPOS>BOND
1 1 9 ar
2 1 15 ar
3 2 6 ar
4 2 14 ar
5 2 17 1
6 4 23 1
7 5 19 1
8 1 6 ar
9 8 30 2
10 7 9 ar
11 9 12 ar
12 10 27 1
13 10 31 1
14 12 14 ar
15 13 30 1
16 13 32 1
17 13 33 1
18 15 16 ar
19 7 16 ar
20 10 16 1
21 3 17 2
22 17 18 1
23 18 19 ar
24 18 23 ar
25 19 20 ar
26 20 21 ar
27 21 22 ar
28 22 23 ar
29 24 25 ar
30 24 29 ar
31 24 30 1
32 25 26 ar
33 26 27 ar
34 27 28 ar
35 28 29 ar
36 11 30 2
@<TRIPOS>SUBSTRUCTURE
1	LG11	1	GROUP	1 X	LG1
