@<TRIPOS>MOLECULE
5tmn_ligand
   64    64     1     0     0
SMALL
bcc


@<TRIPOS>ATOM
      1 C           49.7310    17.9210    -8.9170 c          1 MOL       0.711100
      2 O           49.6240    16.7190    -9.0150 o          1 MOL      -0.580000
      3 OA          49.4360    18.7460    -9.8800 os         1 MOL      -0.430900
      4 CB          48.8800    18.2920   -11.1850 c3         1 MOL       0.193700
      5 CG          47.5420    19.0400   -11.5680 ca         1 MOL      -0.132300
      6 CD1         46.4780    18.9750   -10.7030 ca         1 MOL      -0.105500
      7 CD2         47.3800    19.7700   -12.7250 ca         1 MOL      -0.105500
      8 CE1         45.2480    19.5850   -10.9620 ca         1 MOL      -0.137000
      9 CE2         46.1540    20.4140   -12.9580 ca         1 MOL      -0.137000
     10 CZ          45.1110    20.3000   -12.0940 ca         1 MOL      -0.115000
     11 N           50.1310    18.6280    -7.8860 n          1 MOL      -0.474900
     12 CA          50.4440    17.9780    -6.7000 c3         1 MOL      -0.252200
     13 P           51.7310    18.9700    -6.1030 p5         1 MOL       1.429500
     14 O1P         53.0740    18.6410    -6.5730 o          1 MOL      -0.568500
     15 O2P         51.5010    20.4720    -6.1370 o          1 MOL      -0.568500
     16 N1          51.7120    18.5170    -4.5090 n3         1 MOL      -1.001300
     17 C11         52.8360    18.2290    -3.6390 c3         1 MOL       0.136500
     18 C1          53.5300    16.8860    -3.9040 c          1 MOL       0.672100
     19 O3          54.7570    16.7750    -3.8340 o          1 MOL      -0.518100
     20 C3          52.4730    18.3230    -2.1310 c3         1 MOL      -0.088400
     21 C5          53.7000    18.1610    -1.2410 c3         1 MOL      -0.077700
     22 C7          54.6320    19.3710    -1.4350 c3         1 MOL      -0.089600
     23 C9          53.2110    18.0830     0.2190 c3         1 MOL      -0.089600
     24 N2          52.7370    15.8850    -4.1940 n          1 MOL      -0.484900
     25 C12         53.2020    14.5210    -4.4530 c3         1 MOL      -0.012300
     26 C2          52.3890    13.8360    -5.5240 c          1 MOL       1.032600
     27 O4          51.3250    14.3630    -5.9430 o          1 MOL      -0.493800
     28 C4          53.4490    13.6930    -3.1390 c3         1 MOL      -0.112400
     29 C6          52.2500    13.4870    -2.2600 c3         1 MOL      -0.069700
     30 C8          52.3400    12.1690    -1.5350 c3         1 MOL      -0.091600
     31 C10         52.2510    14.5410    -1.1710 c3         1 MOL      -0.091600
     32 OXT         52.7910    12.7660    -6.0710 o          1 MOL      -0.493800
     33 H1          48.6750    17.2130   -11.1250 h1         1 MOL       0.077200
     34 H2          49.6260    18.4800   -11.9710 h1         1 MOL       0.077200
     35 H3          46.5980    18.4250    -9.7770 ha         1 MOL       0.143000
     36 H4          48.1870    19.8460   -13.4450 ha         1 MOL       0.143000
     37 H5          44.4220    19.4850   -10.2670 ha         1 MOL       0.134500
     38 H6          46.0360    21.0180   -13.8510 ha         1 MOL       0.134500
     39 H7          44.1680    20.7850   -12.3170 ha         1 MOL       0.134000
     40 H8          50.2090    19.6230    -7.9540 hn         1 MOL       0.312500
     41 H9          50.7810    16.9470    -6.8820 h1         1 MOL       0.130200
     42 H10         49.5890    17.9680    -6.0080 h1         1 MOL       0.130200
     43 H11         50.8070    18.4310    -4.0930 hn         1 MOL       0.470800
     44 H12         53.5810    19.0130    -3.8400 h1         1 MOL       0.091700
     45 H13         51.7510    17.5300    -1.8890 hc         1 MOL       0.066200
     46 H14         52.0190    19.3050    -1.9350 hc         1 MOL       0.066200
     47 H15         54.2380    17.2380    -1.5040 hc         1 MOL       0.073700
     48 H16         55.5190    19.2570    -0.7940 hc         1 MOL       0.035700
     49 H17         54.0980    20.2930    -1.1620 hc         1 MOL       0.035700
     50 H18         54.9460    19.4270    -2.4880 hc         1 MOL       0.035700
     51 H19         52.5480    17.2140     0.3380 hc         1 MOL       0.035700
     52 H20         52.6600    19.0010     0.4710 hc         1 MOL       0.035700
     53 H21         54.0760    17.9780     0.8900 hc         1 MOL       0.035700
     54 H22         51.7540    16.0630    -4.2410 hn         1 MOL       0.222500
     55 H23         54.2020    14.6370    -4.8960 h1         1 MOL       0.125700
     56 H24         54.2140    14.2180    -2.5480 hc         1 MOL       0.071700
     57 H25         53.8270    12.7020    -3.4310 hc         1 MOL       0.071700
     58 H26         51.3300    13.5390    -2.8610 hc         1 MOL       0.043700
     59 H27         51.4530    12.0400    -0.8980 hc         1 MOL       0.035367
     60 H28         53.2450    12.1550    -0.9100 hc         1 MOL       0.035367
     61 H29         52.3880    11.3500    -2.2680 hc         1 MOL       0.035367
     62 H30         52.1870    15.5400    -1.6270 hc         1 MOL       0.035367
     63 H31         53.1800    14.4640    -0.5870 hc         1 MOL       0.035367
     64 H32         51.3870    14.3840    -0.5080 hc         1 MOL       0.035367
@<TRIPOS>BOND
     1    16    17 1   
     2    17    20 1   
     3    17    18 1   
     4    18    19 2   
     5    20    21 1   
     6    21    22 1   
     7    21    23 1   
     8    24    25 1   
     9    25    28 1   
    10    25    26 1   
    11    26    27 1   
    12    26    32 1   
    13    28    29 1   
    14    29    30 1   
    15    29    31 1   
    16    18    24 1   
    17     1     2 2   
    18     1     3 1   
    19    11     1 1   
    20     3     4 1   
    21     4     5 1   
    22     5     6 ar  
    23     5     7 ar  
    24     6     8 ar  
    25     7     9 ar  
    26     8    10 ar  
    27     9    10 ar  
    28    12    11 1   
    29    13    12 1   
    30    13    14 1   
    31    13    15 1   
    32    13    16 1   
    33     4    33 1   
    34     4    34 1   
    35     6    35 1   
    36     7    36 1   
    37     8    37 1   
    38     9    38 1   
    39    10    39 1   
    40    11    40 1   
    41    12    41 1   
    42    12    42 1   
    43    16    43 1   
    44    17    44 1   
    45    20    45 1   
    46    20    46 1   
    47    21    47 1   
    48    22    48 1   
    49    22    49 1   
    50    22    50 1   
    51    23    51 1   
    52    23    52 1   
    53    23    53 1   
    54    24    54 1   
    55    25    55 1   
    56    28    56 1   
    57    28    57 1   
    58    29    58 1   
    59    30    59 1   
    60    30    60 1   
    61    30    61 1   
    62    31    62 1   
    63    31    63 1   
    64    31    64 1   
@<TRIPOS>SUBSTRUCTURE
     1 MOL         1 TEMP              0 ****  ****    0 ROOT
