@<TRIPOS>MOLECULE
2cbv_ligand
   26    27     1     0     0
SMALL
bcc


@<TRIPOS>ATOM
      1 O2           0.5890    12.8770    10.4180 oh         1 CGB      -0.555800
      2 C2           0.0470    11.6450     9.9450 c3         1 CGB       0.373000
      3 N1          -1.0440    11.1990    10.7870 n4         1 CGB      -0.812000
      4 C8           1.0120    10.4680    10.0590 c3         1 CGB      -0.100400
      5 C7           0.1160     9.2460    10.2830 c3         1 CGB      -0.101400
      6 C6          -1.3000     9.8280    10.4470 c3         1 CGB       0.097500
      7 C3          -0.4540    11.7630     8.4880 c3         1 CGB       0.108100
      8 O3           0.6860    12.0520     7.6640 oh         1 CGB      -0.583800
      9 C4          -1.1870    10.4680     8.0340 c3         1 CGB       0.105100
     10 O4          -1.9360    10.6990     6.8430 oh         1 CGB      -0.589800
     11 C5          -2.0920     9.8960     9.1280 c3         1 CGB       0.097100
     12 O5          -2.5690     8.5760     8.7990 oh         1 CGB      -0.568800
     13 H1           1.3010    13.1470     9.8500 ho         1 CGB       0.474000
     14 H2          -1.8650    11.7580    10.6150 hn         1 CGB       0.458300
     15 H3          -0.7850    11.2730    11.7580 hn         1 CGB       0.458300
     16 H4           1.6950    10.6080    10.9100 hc         1 CGB       0.113700
     17 H5           1.5960    10.3550     9.1340 hc         1 CGB       0.113700
     18 H6           0.4200     8.7030    11.1900 hc         1 CGB       0.103700
     19 H7           0.1600     8.5690     9.4180 hc         1 CGB       0.103700
     20 H8          -1.8670     9.2890    11.2200 hx         1 CGB       0.117700
     21 H9          -1.1640    12.6000     8.4200 h1         1 CGB       0.078700
     22 H10          1.0810    12.8680     7.9470 ho         1 CGB       0.460000
     23 H11         -0.4180     9.7140     7.8100 h1         1 CGB       0.095700
     24 H12         -2.3740     9.8960     6.5850 ho         1 CGB       0.446000
     25 H13         -2.9570    10.5630     9.2560 h1         1 CGB       0.074700
     26 H14         -3.1250     8.2580     9.5000 ho         1 CGB       0.435000
@<TRIPOS>BOND
     1     1     2 1   
     2     2     3 1   
     3     2     4 1   
     4     2     7 1   
     5     3     6 1   
     6     4     5 1   
     7     5     6 1   
     8     6    11 1   
     9     7     8 1   
    10     7     9 1   
    11     9    10 1   
    12     9    11 1   
    13    11    12 1   
    14     1    13 1   
    15     3    14 1   
    16     3    15 1   
    17     4    16 1   
    18     4    17 1   
    19     5    18 1   
    20     5    19 1   
    21     6    20 1   
    22     7    21 1   
    23     8    22 1   
    24     9    23 1   
    25    10    24 1   
    26    11    25 1   
    27    12    26 1   
@<TRIPOS>SUBSTRUCTURE
     1 CGB         1 TEMP              0 ****  ****    0 ROOT
