@<TRIPOS>MOLECULE
4agp_ligand
   63    65     1     0     0
SMALL
bcc


@<TRIPOS>ATOM
      1 C01         91.5770    93.4520   -45.2950 ca         1 P51      -0.003000
      2 C04         91.7530    92.3450   -46.1880 cg         1 P51      -0.106000
      3 C05         91.8950    91.4530   -46.9720 c1         1 P51      -0.128100
      4 C06         92.1440    90.3480   -47.9190 c3         1 P51       0.207500
      5 O           90.9260    89.9330   -48.5430 os         1 P51      -0.319900
      6 C07         90.3680    90.7330   -49.5100 ca         1 P51       0.113100
      7 C1          90.9060    95.7610   -44.9550 ca         1 P51      -0.166300
      8 N1          90.8320    98.2450   -44.8170 n4         1 P51      -0.652400
      9 O1          91.0790    96.7610   -42.7680 oh         1 P51      -0.509100
     10 C02         91.9220    93.3360   -43.9450 ca         1 P51      -0.026000
     11 C2          90.3530    97.0310   -45.5320 c3         1 P51       0.162100
     12 N2          92.0580   102.3500   -44.2520 n4         1 P51      -0.999400
     13 C03         89.7980    99.3400   -44.8630 c3         1 P51       0.080300
     14 C3          91.0740    94.6640   -45.8050 ca         1 P51      -0.036000
     15 C4          91.7430    94.4530   -43.1210 ca         1 P51      -0.062100
     16 C7          91.2390    95.6800   -43.5770 ca         1 P51       0.180100
     17 C8          90.3350   100.5070   -44.0570 c3         1 P51       0.098100
     18 C10         91.5700   100.9970   -44.8020 c3         1 P51      -0.579500
     19 C11         93.0710   102.1710   -43.1140 c3         1 P51       0.171800
     20 C12         93.7770   103.4970   -42.9020 c3         1 P51      -0.134100
     21 C13         90.9580   103.2970   -43.7890 c3         1 P51       0.171800
     22 C14         90.1540   103.9020   -44.9310 c3         1 P51      -0.134100
     23 C15         92.6740    99.9330   -44.6790 c3         1 P51       0.098100
     24 C16         92.1560    98.6850   -45.3690 c3         1 P51       0.080300
     25 I2          92.2500    94.2730   -41.0690 i          1 P51      -0.109900
     26 C08         89.1070    90.3130   -49.9440 ca         1 P51      -0.175000
     27 C09         88.4200    91.0300   -50.9270 ca         1 P51      -0.099000
     28 C17         88.9920    92.1730   -51.4820 ca         1 P51      -0.159000
     29 C18         90.2540    92.5960   -51.0580 ca         1 P51      -0.099000
     30 C           90.9380    91.8770   -50.0700 ca         1 P51      -0.175000
     31 H1          92.5790    89.4970   -47.3750 h1         1 P51       0.081200
     32 H2          92.8490    90.6870   -48.6930 h1         1 P51       0.081200
     33 H3          90.9710    98.0000   -43.8490 hn         1 P51       0.445800
     34 H4          91.3470    96.5360   -41.8850 ho         1 P51       0.451000
     35 H5          92.3170    92.4080   -43.5480 ha         1 P51       0.162000
     36 H6          89.2550    96.9970   -45.4700 hx         1 P51       0.090200
     37 H7          90.6590    97.1000   -46.5860 hx         1 P51       0.090200
     38 H8          92.5350   102.8080   -45.0130 hn         1 P51       0.410800
     39 H9          88.8540    98.9840   -44.4250 hx         1 P51       0.054450
     40 H10         89.6250    99.6500   -45.9040 hx         1 P51       0.054450
     41 H11         90.8170    94.7460   -46.8550 ha         1 P51       0.158000
     42 H12         90.6060   100.1790   -43.0420 hc         1 P51       0.001700
     43 H13         89.5830   101.3070   -43.9950 hc         1 P51       0.001700
     44 H14         91.3150   101.1260   -45.8640 hx         1 P51       0.070700
     45 H15         93.8040   101.3970   -43.3850 hx         1 P51       0.030700
     46 H16         92.5490   101.8750   -42.1920 hx         1 P51       0.030700
     47 H17         94.5110   103.3960   -42.0890 hc         1 P51       0.036533
     48 H18         93.0380   104.2670   -42.6350 hc         1 P51       0.036533
     49 H19         94.2940   103.7900   -43.8280 hc         1 P51       0.036533
     50 H20         91.4210   104.1150   -43.2180 hx         1 P51       0.030700
     51 H21         90.2700   102.7390   -43.1370 hx         1 P51       0.030700
     52 H22         89.3830   104.5710   -44.5220 hc         1 P51       0.036533
     53 H23         89.6740   103.0980   -45.5080 hc         1 P51       0.036533
     54 H24         90.8250   104.4740   -45.5890 hc         1 P51       0.036533
     55 H25         92.8810    99.7220   -43.6190 hc         1 P51       0.001700
     56 H26         93.5940   100.2830   -45.1700 hc         1 P51       0.001700
     57 H27         92.0410    98.8950   -46.4430 hx         1 P51       0.054450
     58 H28         92.8860    97.8740   -45.2300 hx         1 P51       0.054450
     59 H29         88.6590    89.4240   -49.5150 ha         1 P51       0.144500
     60 H30         87.4430    90.6970   -51.2580 ha         1 P51       0.135500
     61 H31         88.4590    92.7330   -52.2420 ha         1 P51       0.136000
     62 H32         90.7040    93.4810   -51.4940 ha         1 P51       0.135500
     63 H33         91.9150    92.2110   -49.7390 ha         1 P51       0.144500
@<TRIPOS>BOND
     1     1     2 1   
     2     1    10 ar  
     3    14     1 ar  
     4     2     3 3   
     5     3     4 1   
     6     4     5 1   
     7     5     6 1   
     8     6    26 ar  
     9     6    30 ar  
    10    11     7 1   
    11     7    14 ar  
    12     7    16 ar  
    13     8    11 1   
    14    13     8 1   
    15     8    24 1   
    16    16     9 1   
    17    15    10 ar  
    18    18    12 1   
    19    12    19 1   
    20    12    21 1   
    21    17    13 1   
    22    16    15 ar  
    23    15    25 1   
    24    17    18 1   
    25    18    23 1   
    26    19    20 1   
    27    21    22 1   
    28    23    24 1   
    29    26    27 ar  
    30    27    28 ar  
    31    28    29 ar  
    32    29    30 ar  
    33     4    31 1   
    34     4    32 1   
    35     8    33 1   
    36     9    34 1   
    37    10    35 1   
    38    11    36 1   
    39    11    37 1   
    40    12    38 1   
    41    13    39 1   
    42    13    40 1   
    43    14    41 1   
    44    17    42 1   
    45    17    43 1   
    46    18    44 1   
    47    19    45 1   
    48    19    46 1   
    49    20    47 1   
    50    20    48 1   
    51    20    49 1   
    52    21    50 1   
    53    21    51 1   
    54    22    52 1   
    55    22    53 1   
    56    22    54 1   
    57    23    55 1   
    58    23    56 1   
    59    24    57 1   
    60    24    58 1   
    61    26    59 1   
    62    27    60 1   
    63    28    61 1   
    64    29    62 1   
    65    30    63 1   
@<TRIPOS>SUBSTRUCTURE
     1 P51         1 TEMP              0 ****  ****    0 ROOT
