@<TRIPOS>MOLECULE
3uex_ligand
   55    54     1     0     0
SMALL
bcc


@<TRIPOS>ATOM
      1 C1          -0.7930     2.2250    21.0740 c          1 STE       0.907600
      2 O1          -1.9940     1.8610    21.1150 o          1 STE      -0.853800
      3 O2           0.1080     1.7000    21.7640 o          1 STE      -0.853800
      4 C2          -0.4340     3.3740    20.1690 c3         1 STE      -0.193400
      5 C3          -0.8990     4.6780    20.8120 c3         1 STE      -0.065400
      6 C4          -2.0370     5.3190    20.0220 c3         1 STE      -0.079400
      7 C5          -3.0720     5.9520    20.9370 c3         1 STE      -0.079400
      8 C6          -4.0720     6.8100    20.1700 c3         1 STE      -0.075400
      9 C7          -3.3440     7.8860    19.3750 c3         1 STE      -0.080400
     10 C8          -4.1370     9.1690    19.3320 c3         1 STE      -0.078400
     11 C9          -3.1970    10.2980    18.9430 c3         1 STE      -0.079400
     12 C10         -4.0170    11.5370    18.6110 c3         1 STE      -0.078400
     13 C11         -3.0960    12.7230    18.8150 c3         1 STE      -0.079400
     14 C12         -3.8460    13.9770    18.4280 c3         1 STE      -0.078400
     15 C13         -2.8480    15.0820    18.2380 c3         1 STE      -0.078400
     16 C14         -3.5330    16.4330    18.1320 c3         1 STE      -0.077400
     17 C15         -3.7780    16.8230    16.6750 c3         1 STE      -0.079400
     18 C16         -4.5050    18.1520    16.6760 c3         1 STE      -0.078400
     19 C17         -4.6580    18.7330    15.2940 c3         1 STE      -0.078400
     20 C18         -4.8030    17.6680    14.2280 c3         1 STE      -0.093100
     21 H1          -0.9300     3.2460    19.1960 hc         1 STE       0.018700
     22 H2           0.6560     3.4030    20.0240 hc         1 STE       0.018700
     23 H3          -0.0520     5.3790    20.8510 hc         1 STE       0.043700
     24 H4          -1.2480     4.4680    21.8340 hc         1 STE       0.043700
     25 H5          -2.5270     4.5460    19.4120 hc         1 STE       0.026200
     26 H6          -1.6200     6.0960    19.3640 hc         1 STE       0.026200
     27 H7          -2.5540     6.5840    21.6730 hc         1 STE       0.036700
     28 H8          -3.6190     5.1530    21.4600 hc         1 STE       0.036700
     29 H9          -4.7610     7.2880    20.8820 hc         1 STE       0.028700
     30 H10         -4.6430     6.1720    19.4790 hc         1 STE       0.028700
     31 H11         -3.1870     7.5270    18.3470 hc         1 STE       0.043200
     32 H12         -2.3700     8.0830    19.8470 hc         1 STE       0.043200
     33 H13         -4.5710     9.3710    20.3220 hc         1 STE       0.034200
     34 H14         -4.9430     9.0830    18.5880 hc         1 STE       0.034200
     35 H15         -2.6070    10.0000    18.0630 hc         1 STE       0.040200
     36 H16         -2.5190    10.5180    19.7810 hc         1 STE       0.040200
     37 H17         -4.8860    11.6100    19.2820 hc         1 STE       0.036700
     38 H18         -4.3620    11.4970    17.5670 hc         1 STE       0.036700
     39 H19         -2.2030    12.6140    18.1830 hc         1 STE       0.039700
     40 H20         -2.7930    12.7820    19.8710 hc         1 STE       0.039700
     41 H21         -4.5540    14.2480    19.2250 hc         1 STE       0.038200
     42 H22         -4.3960    13.8070    17.4910 hc         1 STE       0.038200
     43 H23         -2.2790    14.8960    17.3150 hc         1 STE       0.039200
     44 H24         -2.1610    15.0950    19.0970 hc         1 STE       0.039200
     45 H25         -2.8960    17.1950    18.6040 hc         1 STE       0.036200
     46 H26         -4.4990    16.3870    18.6570 hc         1 STE       0.036200
     47 H27         -4.3940    16.0580    16.1800 hc         1 STE       0.042200
     48 H28         -2.8190    16.9200    16.1460 hc         1 STE       0.042200
     49 H29         -3.9380    18.8630    17.2960 hc         1 STE       0.036700
     50 H30         -5.5060    18.0050    17.1090 hc         1 STE       0.036700
     51 H31         -3.7690    19.3400    15.0670 hc         1 STE       0.036200
     52 H32         -5.5530    19.3720    15.2770 hc         1 STE       0.036200
     53 H33         -4.9110    18.1470    13.2440 hc         1 STE       0.032367
     54 H34         -5.6940    17.0580    14.4380 hc         1 STE       0.032367
     55 H35         -3.9100    17.0260    14.2270 hc         1 STE       0.032367
@<TRIPOS>BOND
     1     1     2 1   
     2     1     3 1   
     3     1     4 1   
     4     4     5 1   
     5     5     6 1   
     6     6     7 1   
     7     7     8 1   
     8     8     9 1   
     9     9    10 1   
    10    10    11 1   
    11    11    12 1   
    12    12    13 1   
    13    13    14 1   
    14    14    15 1   
    15    15    16 1   
    16    16    17 1   
    17    17    18 1   
    18    18    19 1   
    19    19    20 1   
    20     4    21 1   
    21     4    22 1   
    22     5    23 1   
    23     5    24 1   
    24     6    25 1   
    25     6    26 1   
    26     7    27 1   
    27     7    28 1   
    28     8    29 1   
    29     8    30 1   
    30     9    31 1   
    31     9    32 1   
    32    10    33 1   
    33    10    34 1   
    34    11    35 1   
    35    11    36 1   
    36    12    37 1   
    37    12    38 1   
    38    13    39 1   
    39    13    40 1   
    40    14    41 1   
    41    14    42 1   
    42    15    43 1   
    43    15    44 1   
    44    16    45 1   
    45    16    46 1   
    46    17    47 1   
    47    17    48 1   
    48    18    49 1   
    49    18    50 1   
    50    19    51 1   
    51    19    52 1   
    52    20    53 1   
    53    20    54 1   
    54    20    55 1   
@<TRIPOS>SUBSTRUCTURE
     1 STE         1 TEMP              0 ****  ****    0 ROOT
